
**** 10/17/24 15:29:50 ******* PSpice 17.4.0 (Nov 2018) ******* ID# 0 ********

 ** Profile: "SCHEMATIC1-Simulation"  [ C:\Users\teaneyje\Documents\Supa-Cap\Design Files\Super Capacitor V1\Simulations\PSpice\Super


 ****     CIRCUIT DESCRIPTION


******************************************************************************




** Creating circuit file "Simulation.cir" 
** WARNING: THIS AUTOMATICALLY GENERATED FILE MAY BE OVERWRITTEN BY SUBSEQUENT SIMULATIONS

*Libraries: 
* Profile Libraries :
* Local Libraries :
* From [PSPICE NETLIST] section of C:\Users\teaneyje\cdssetup\OrCAD_PSpice\17.4.0\PSpice.ini file:
.lib "C:\Users\teaneyje\OneDrive - Rose-Hulman Institute of Technology\Documents\Classes\RHIT_Libraries\Class.lib" 
.lib "nom.lib" 

*Analysis directives: 
.TRAN  0 100 0 
.OPTIONS ADVCONV
.PROBE64 V(alias(*)) I(alias(*)) W(alias(*)) D(alias(*)) NOISE(alias(*)) 
.INC "..\SCHEMATIC1.net" 



**** INCLUDING SCHEMATIC1.net ****
* source SUPERCAP-CAPBOARD
C_C1         N000400 V_15 100 IC=0
R_R1         N00191 N000400 0.15 
C_C2         N004370 N00191 100 IC=0
R_R5         N00513 N004370 0.15 
R_R8         N00779 N007030 0.15 
C_C3         N007030 N00513 100 IC=0
C_C4         N009690 N00779 100 IC=0
R_R11         N01045 N009690 0.15 
R_R14         N01311 N012350 0.15 
C_C5         N012350 N01045 100 IC=0
R_R17         0 N016910 0.15 
C_C6         N016910 N01311 100 IC=0
V_V1         N07080 0  DC 15
R_R19         V_15 0 1000k 
X_s1         N07080 V_15 N/O_switch PARAMS: to=0.01

**** RESUMING Simulation.cir ****
.END

ERROR(ORPSIM-15142): Node N000400 is floating

ERROR(ORPSIM-15142): Node N00191 is floating

ERROR(ORPSIM-15142): Node N004370 is floating

ERROR(ORPSIM-15142): Node N00513 is floating

ERROR(ORPSIM-15142): Node N00779 is floating

ERROR(ORPSIM-15142): Node N007030 is floating

ERROR(ORPSIM-15142): Node N009690 is floating

ERROR(ORPSIM-15142): Node N01045 is floating

ERROR(ORPSIM-15142): Node N01311 is floating

ERROR(ORPSIM-15142): Node N012350 is floating
